&aerosol_nl
 aer_drydep_list		= 'bc_a1', 'bc_a4', 'dst_a1', 'dst_a2', 'dst_a3', 'ncl_a1', 'ncl_a2', 'ncl_a3', 'num_a1', 'num_a2', 'num_a3',
         'num_a4', 'pom_a1', 'pom_a4', 'so4_a1', 'so4_a2', 'so4_a3', 'soa_a1', 'soa_a2'
 aer_wetdep_list		= 'bc_a1', 'bc_a4', 'dst_a1', 'dst_a2', 'dst_a3', 'ncl_a1', 'ncl_a2', 'ncl_a3', 'num_a1', 'num_a2', 'num_a3',
         'num_a4', 'pom_a1', 'pom_a4', 'so4_a1', 'so4_a2', 'so4_a3', 'soa_a1', 'soa_a2'
 modal_accum_coarse_exch		= .true.
 modal_strat_sulfate		= .true.
 seasalt_emis_scale		= 1.00D0
 sol_factb_interstitial		= 0.1D0
 sol_facti_cloud_borne		= 1.0D0
 sol_factic_interstitial		= 0.4D0
/
&air_composition_nl
 dry_air_species		= 'O', 'O2', 'H', 'N2'
 water_species_in_air		= 'Q','CLDLIQ','CLDICE','RAINQM','SNOWQM'
/
&aoa_tracers_nl
 aoa_tracers_flag		= .true.
/
&blj_nl
 do_beljaars		=  .true.  
/
&cam_history_nl
 avgflag_pertape		= 'A',  'I',  'I',  'A',  'A',  'A', 'A'
 avgflag_pertape(1)		= 'I'
 avgflag_pertape(2)		= 'I'
 avgflag_pertape(3)		= 'I'
 empty_htapes		= .true.
 fincl1		= 'TEINP','TEOUT','TEFIX','EFIX','DTCORE','PS','U','T','Q','PRECT','OMEGA500'
 fincl2		= 'WV_pBF', 'WL_pBF', 'WI_pBF', 'SE_pBF', 'KE_pBF', 'WV_pBP', 'WL_pBP', 'WI_pBP', 'SE_pBP', 'KE_pBP', 'WV_pAP',
         'WL_pAP', 'WI_pAP', 'SE_pAP', 'KE_pAP', 'WV_pAM', 'WL_pAM', 'WI_pAM', 'SE_pAM', 'KE_pAM'
 fincl3		= 'PS'
 fincl4		= 'PS'
 fincl5		= 'PS'
 fincl6		= 'PS'
 fincl7		= 'PS'
 fincl8		= 'PS'
 mfilt		= 10,10,10,10,10,10,10,10,10,10,10
 ndens		= 2,1,2,2
 nhtfrq		= 1,1,0,0,0
/
&cam_initfiles_nl
 bnd_topo		= '/glade/p/cesmdata/cseg/inputdata/atm/cam/topo/fv_0.9x1.25_nc3000_Nsw042_Nrs008_Co060_Fi001_ZR_sgh30_24km_GRNL_c170103.nc'
 ncdata		= '/glade/p/cesmdata/cseg/inputdata/atm/waccm/ic/wcmx-cam6-phys_0.9x1.25_130lev_2000_c190122.nc'
 use_topo_file		=  .true.  
/
&check_energy_nl
 print_energy_errors		= .false.
/
&chem_inparm
 chem_use_chemtrop		= .true.
 depvel_lnd_file		= '/glade/p/cesmdata/cseg/inputdata/atm/cam/chem/trop_mozart/dvel/regrid_vegetation.nc'
 electron_file		= '/glade/p/cesmdata/cseg/inputdata/atm/waccm/phot/electron_121129.dat'
 euvac_file		= '/glade/p/cesmdata/cseg/inputdata/atm/waccm/phot/EUVAC_reference_c170222.nc'
 ext_frc_cycle_yr		= 2000
 ext_frc_specifier		= 'bc_a4 -> /glade/p/cesmdata/cseg/inputdata/atm/cam/chem/emis/CMIP6_emissions_1750_2015/emissions-cmip6_bc_a4_aircraft_vertical_1750-2015_0.9x1.25_c20170608.nc',
         'NO2 -> /glade/p/cesmdata/cseg/inputdata/atm/cam/chem/emis/CMIP6_emissions_1750_2015/emissions-cmip6_NO2_aircraft_vertical_1750-2015_0.9x1.25_c20170608.nc',
         'num_a1 -> /glade/p/cesmdata/cseg/inputdata/atm/cam/chem/emis/CMIP6_emissions_1750_2015/emissions-cmip6_num_so4_a1_anthro-ene_vertical_1750-2015_0.9x1.25_c20170616.nc',
         'num_a1 -> /glade/p/cesmdata/cseg/inputdata/atm/cam/chem/emis/CMIP6_emissions_1750_2015/emissions-cmip6_num_a1_so4_contvolcano_vertical_850-5000_0.9x1.25_c20170724.nc',
         'num_a2 -> /glade/p/cesmdata/cseg/inputdata/atm/cam/chem/emis/CMIP6_emissions_1750_2015/emissions-cmip6_num_a2_so4_contvolcano_vertical_850-5000_0.9x1.25_c20170724.nc',
         'num_a4 -> /glade/p/cesmdata/cseg/inputdata/atm/cam/chem/emis/CMIP6_emissions_1750_2015/emissions-cmip6_num_bc_a4_aircraft_vertical_1750-2015_0.9x1.25_c20170608.nc',
         'SO2 -> /glade/p/cesmdata/cseg/inputdata/atm/cam/chem/emis/CMIP6_emissions_1750_2015/emissions-cmip6_SO2_aircraft_vertical_1750-2015_0.9x1.25_c20170608.nc',
         'SO2 -> /glade/p/cesmdata/cseg/inputdata/atm/cam/chem/emis/CMIP6_emissions_1750_2015/emissions-cmip6_SO2_contvolcano_vertical_850-5000_0.9x1.25_c20170724.nc',
         'so4_a1 -> /glade/p/cesmdata/cseg/inputdata/atm/cam/chem/emis/CMIP6_emissions_1750_2015/emissions-cmip6_so4_a1_anthro-ene_vertical_1750-2015_0.9x1.25_c20170616.nc',
         'so4_a1 -> /glade/p/cesmdata/cseg/inputdata/atm/cam/chem/emis/CMIP6_emissions_1750_2015/emissions-cmip6_so4_a1_contvolcano_vertical_850-5000_0.9x1.25_c20170724.nc',
         'so4_a2 -> /glade/p/cesmdata/cseg/inputdata/atm/cam/chem/emis/CMIP6_emissions_1750_2015/emissions-cmip6_so4_a2_contvolcano_vertical_850-5000_0.9x1.25_c20170724.nc'
 ext_frc_type		= 'CYCLICAL'
 lght_no_prd_factor		= 1.50D0
 photon_file		= '/glade/p/cesmdata/cseg/inputdata/atm/waccm/phot/photon_c130710.dat'
 rsf_file		= '/glade/p/cesmdata/cseg/inputdata/atm/waccm/phot/RSF_GT200nm_v3.0_c080811.nc'
 srf_emis_cycle_yr		= 2000
 srf_emis_specifier		= 'CH2O -> /glade/p/cesmdata/cseg/inputdata/atm/cam/chem/emis/CMIP6_emissions_1750_2015/emissions-cmip6_CH2O_anthro_surface_1750-2015_0.9x1.25_c20170608.nc',
         'CH2O -> /glade/p/cesmdata/cseg/inputdata/atm/cam/chem/emis/CMIP6_emissions_1750_2015/emissions-cmip6_CH2O_bb_surface_1750-2015_0.9x1.25_c20170322.nc',
         'CO -> /glade/p/cesmdata/cseg/inputdata/atm/cam/chem/emis/CMIP6_emissions_1750_2015/emissions-cmip6_CO_anthro_surface_1750-2015_0.9x1.25_c20180504.nc',
         'CO -> /glade/p/cesmdata/cseg/inputdata/atm/cam/chem/emis/CMIP6_emissions_1750_2015/emissions-cmip6_CO_bb_surface_1750-2015_0.9x1.25_c20170322.nc',
         'CO -> /glade/p/cesmdata/cseg/inputdata/atm/cam/chem/emis/CMIP6_emissions_1750_2015/emissions-cmip6_CO_other_surface_1750-2015_0.9x1.25_c20170322.nc',
         'NO -> /glade/p/cesmdata/cseg/inputdata/atm/cam/chem/emis/CMIP6_emissions_1750_2015/emissions-cmip6_NO_anthro_surface_1750-2015_0.9x1.25_c20170608.nc',
         'NO -> /glade/p/cesmdata/cseg/inputdata/atm/cam/chem/emis/CMIP6_emissions_1750_2015/emissions-cmip6_NO_bb_surface_1750-2015_0.9x1.25_c20180611.nc',
         'NO -> /glade/p/cesmdata/cseg/inputdata/atm/cam/chem/emis/CMIP6_emissions_1750_2015/emissions-cmip6_NO_other_surface_1750-2015_0.9x1.25_c20170322.nc',
         'bc_a4 -> /glade/p/cesmdata/cseg/inputdata/atm/cam/chem/emis/CMIP6_emissions_1750_2015/emissions-cmip6_bc_a4_anthro_surface_1750-2015_0.9x1.25_c20170608.nc',
         'bc_a4 -> /glade/p/cesmdata/cseg/inputdata/atm/cam/chem/emis/CMIP6_emissions_1750_2015/emissions-cmip6_bc_a4_bb_surface_1750-2015_0.9x1.25_c20170322.nc',
         'DMS -> /glade/p/cesmdata/cseg/inputdata/atm/cam/chem/emis/CMIP6_emissions_1750_2015/emissions-cmip6_DMS_bb_surface_1750-2015_0.9x1.25_c20170322.nc',
         'DMS -> /glade/p/cesmdata/cseg/inputdata/atm/cam/chem/emis/CMIP6_emissions_1750_2015/emissions-cmip6_DMS_other_surface_1750-2015_0.9x1.25_c20170322.nc',
         'num_a1 -> /glade/p/cesmdata/cseg/inputdata/atm/cam/chem/emis/CMIP6_emissions_1750_2015/emissions-cmip6_num_so4_a1_bb_surface_1750-2015_0.9x1.25_c20170322.nc',
         'num_a1 -> /glade/p/cesmdata/cseg/inputdata/atm/cam/chem/emis/CMIP6_emissions_1750_2015/emissions-cmip6_num_so4_a1_anthro-ag-ship_surface_1750-2015_0.9x1.25_c20170616.nc',
         'num_a2 -> /glade/p/cesmdata/cseg/inputdata/atm/cam/chem/emis/CMIP6_emissions_1750_2015/emissions-cmip6_num_so4_a2_anthro-res_surface_1750-2015_0.9x1.25_c20170616.nc',
         'num_a4 -> /glade/p/cesmdata/cseg/inputdata/atm/cam/chem/emis/CMIP6_emissions_1750_2015/emissions-cmip6_num_bc_a4_bb_surface_1750-2015_0.9x1.25_c20170322.nc',
         'num_a4 -> /glade/p/cesmdata/cseg/inputdata/atm/cam/chem/emis/CMIP6_emissions_1750_2015/emissions-cmip6_num_bc_a4_anthro_surface_1750-2015_0.9x1.25_c20170608.nc',
         'num_a4 -> /glade/p/cesmdata/cseg/inputdata/atm/cam/chem/emis/CMIP6_emissions_1750_2015/emissions-cmip6_num_pom_a4_anthro_surface_1750-2015_0.9x1.25_c20170608.nc',
         'num_a4 -> /glade/p/cesmdata/cseg/inputdata/atm/cam/chem/emis/CMIP6_emissions_1750_2015/emissions-cmip6_num_pom_a4_bb_surface_1750-2015_0.9x1.25_c20170509.nc',
         'pom_a4 -> /glade/p/cesmdata/cseg/inputdata/atm/cam/chem/emis/CMIP6_emissions_1750_2015/emissions-cmip6_pom_a4_anthro_surface_1750-2015_0.9x1.25_c20170608.nc',
         'pom_a4 -> /glade/p/cesmdata/cseg/inputdata/atm/cam/chem/emis/CMIP6_emissions_1750_2015/emissions-cmip6_pom_a4_bb_surface_1750-2015_0.9x1.25_c20170322.nc',
         'SO2 -> /glade/p/cesmdata/cseg/inputdata/atm/cam/chem/emis/CMIP6_emissions_1750_2015/emissions-cmip6_SO2_anthro-ag-ship-res_surface_1750-2015_0.9x1.25_c20170616.nc',
         'SO2 -> /glade/p/cesmdata/cseg/inputdata/atm/cam/chem/emis/CMIP6_emissions_1750_2015/emissions-cmip6_SO2_anthro-ene_surface_1750-2015_0.9x1.25_c20170616.nc',
         'SO2 -> /glade/p/cesmdata/cseg/inputdata/atm/cam/chem/emis/CMIP6_emissions_1750_2015/emissions-cmip6_SO2_bb_surface_1750-2015_0.9x1.25_c20170322.nc',
         'so4_a1 -> /glade/p/cesmdata/cseg/inputdata/atm/cam/chem/emis/CMIP6_emissions_1750_2015/emissions-cmip6_so4_a1_anthro-ag-ship_surface_1750-2015_0.9x1.25_c20170616.nc',
         'so4_a1 -> /glade/p/cesmdata/cseg/inputdata/atm/cam/chem/emis/CMIP6_emissions_1750_2015/emissions-cmip6_so4_a1_bb_surface_1750-2015_0.9x1.25_c20170322.nc',
         'so4_a2 -> /glade/p/cesmdata/cseg/inputdata/atm/cam/chem/emis/CMIP6_emissions_1750_2015/emissions-cmip6_so4_a2_anthro-res_surface_1750-2015_0.9x1.25_c20170616.nc',
         'SOAG -> /glade/p/cesmdata/cseg/inputdata/atm/cam/chem/emis/CMIP6_emissions_1750_2015/emissions-cmip6_SOAGx1.5_anthro_surface_1750-2015_0.9x1.25_c20170608.nc',
         'SOAG -> /glade/p/cesmdata/cseg/inputdata/atm/cam/chem/emis/CMIP6_emissions_1750_2015/emissions-cmip6_SOAGx1.5_bb_surface_1750-2015_0.9x1.25_c20170322.nc',
         'SOAG -> /glade/p/cesmdata/cseg/inputdata/atm/cam/chem/emis/CMIP6_emissions_1750_2015/emissions-cmip6_SOAGx1.5_biogenic_surface_1750-2015_0.9x1.25_c20170322.nc'
 srf_emis_type		= 'CYCLICAL'
 xactive_prates		= .false.
 xs_coef_file		= '/glade/p/cesmdata/cseg/inputdata/atm/waccm/phot/effxstex.txt'
 xs_long_file		= '/glade/p/cesmdata/cseg/inputdata/atm/waccm/phot/temp_prs_GT200nm_JPL10_c140624.nc'
 xs_short_file		= '/glade/p/cesmdata/cseg/inputdata/atm/waccm/phot/xs_short_jpl10_c140303.nc'
/
&chem_surfvals_nl
 flbc_cycle_yr		= 2000
 flbc_file		= '/glade/p/cesmdata/cseg/inputdata/atm/waccm/lb/LBC_17500116-20150116_CMIP6_0p5degLat_c180227.nc'
 flbc_list		= 'CCL4', 'CF2CLBR', 'CF3BR', 'CFC11', 'CFC113', 'CFC12', 'CH3BR', 'CH3CCL3', 'CH3CL', 'CH4',
         'CO2', 'H2', 'HCFC22', 'N2O', 'CFC114', 'CFC115', 'HCFC141B', 'HCFC142B', 'CH2BR2', 'CHBR3',
         'H2402', 'OCS', 'CFC11eq'
 flbc_type		= 'CYCLICAL'
 scenario_ghg		= 'CHEM_LBC_FILE'
/
&circ_diag_nl
 do_circulation_diags		= .true.
/
&cldfrc2m_nl
 cldfrc2m_do_subgrid_growth		= .true.
 cldfrc2m_rhmaxi		=   1.0D0  
 cldfrc2m_rhmaxis		=   1.0D0  
 cldfrc2m_rhmini		=   0.80D0  
 cldfrc2m_rhminis		=   1.0D0 
/
&cldfrc_nl
 cldfrc_dp1		=  0.10D0 
 cldfrc_dp2		=  500.0D0 
 cldfrc_freeze_dry		= .true.
 cldfrc_ice		= .true.
 cldfrc_icecrit		=  0.93D0 
 cldfrc_iceopt		=  5 
 cldfrc_premib		=  700.0D2 
 cldfrc_premit		=  75000.0D0 
 cldfrc_rhminh		=  0.800D0 
 cldfrc_rhminl		=  0.950D0 
 cldfrc_rhminl_adj_land		=  0.000D0 
 cldfrc_sh1		=  0.04D0 
 cldfrc_sh2		=  500.0D0 
/
&clubb_his_nl
 clubb_history		=  .false. 
 clubb_rad_history		=  .false. 
/
&clubb_mf_nl
 clubb_mf_ent0		=  0.22    
 clubb_mf_l0		=  50.0    
 clubb_mf_nup		=  10      
 do_clubb_mf		=  .false. 
 do_clubb_mf_diag		=  .false. 
/
&clubb_params_nl
 clubb_beta		=  2.4     
 clubb_c1		=  1.0     
 clubb_c11		=  0.7D0   
 clubb_c11b		=  0.35D0  
 clubb_c14		=  2.2D0   
 clubb_c1b		=  1.0     
 clubb_c2rt		=  1.0     
 clubb_c2rtthl		=  1.3     
 clubb_c2thl		=  1.0     
 clubb_c4		=  5.2     
 clubb_c7		=  0.5     
 clubb_c7b		=  0.5     
 clubb_c8		=  4.2     
 clubb_c8b		=  0.0     
 clubb_c_k10		=  0.5     
 clubb_c_k10h		=  0.3     
 clubb_c_k9		=  0.25    
 clubb_c_wp2_splat		=  0.0     
 clubb_do_liqsupersat		=  .false. 
 clubb_gamma_coef		=  0.308   
 clubb_gamma_coefb		=  0.32    
 clubb_l_brunt_vaisala_freq_moist		=  .false. 
 clubb_l_call_pdf_closure_twice		=  .true.  
 clubb_l_damp_wp2_using_em		=  .false. 
 clubb_l_damp_wp3_skw_squared		=  .false. 
 clubb_l_diag_lscale_from_tau		=  .false. 
 clubb_l_lscale_plume_centered		=  .false. 
 clubb_l_min_wp2_from_corr_wx		=  .false. 
 clubb_l_min_xp2_from_corr_wx		=  .false. 
 clubb_l_predict_upwp_vpwp		=  .false. 
 clubb_l_rcm_supersat_adj		=  .false. 
 clubb_l_stability_correct_tau_zm		=  .true.  
 clubb_l_trapezoidal_rule_zm		=  .true.  
 clubb_l_trapezoidal_rule_zt		=  .true.  
 clubb_l_upwind_xpyp_ta		=  .true.  
 clubb_l_use_c11_richardson		=  .false. 
 clubb_l_use_c7_richardson		=  .false. 
 clubb_l_use_cloud_cover		=  .true.  
 clubb_l_use_ice_latent		=  .false. 
 clubb_l_use_thvm_in_bv_freq		=  .false. 
 clubb_l_vert_avg_closure		=  .true.  
 clubb_lambda0_stability_coef		=  0.04    
 clubb_lmin_coef		=  0.1     
 clubb_mult_coef		=  1.0D0   
 clubb_nu9		=  20.0    
 clubb_skw_denom_coef		=  0.0     
 clubb_skw_max_mag		=  4.5     
 clubb_up2_vp2_factor		=  2.0     
/
&clubbpbl_diff_nl
 clubb_cloudtop_cooling		=  .false. 
 clubb_do_icesuper		=  .false. 
 clubb_expldiff		=  .true.  
 clubb_rainevap_turb		=  .false. 
 clubb_rnevap_effic		=  1.0D0   
 clubb_timestep		=  300.0D0 
/
&conv_water_nl
 conv_water_frac_limit		=  0.01d0  
 conv_water_in_rad		=  1 
/
&dadadj_nl
 dadadj_niter		= 15
/
&dust_nl
 dust_emis_fact		= 0.7D0
 soil_erod_file		= '/glade/p/cesmdata/cseg/inputdata/atm/cam/dst/dst_source2x2tunedcam6-2x2-04062017.nc'
/
&dyn_fv_inparm
 fv_am_correction		=  .false.
 fv_am_diag		=  .false.
 fv_am_fix_lbl		=  .false.
 fv_am_fixer		=  .false.
 fv_del2coef		= 3.e+5
 fv_div24del2flag		= 42
 fv_fft_flt		= 1
 fv_filtcw		= 0
 fv_high_altitude		= .true.
 fv_nsplit		= 16
 fv_nspltrac		= 4
 fv_nspltvrm		= 4
/
&epp_ionization_nl
 epp_all_filepath		= '/glade/p/cesmdata/cseg/inputdata/atm/cam/solar/SolarForcing1995-2005avg_c160929.nc'
 epp_all_varname		= 'epp_ion_rates'
/
&geomag_nl
 fixed_geomag_year		= 2000
 igrf_geomag_coefs_file		= '/glade/p/cesmdata/cseg/inputdata/atm/waccm/geomag/igrf_ceofs_c160412.nc'
/
&gw_drag_nl
 effgw_beres_dp		= 0.5D0
 effgw_cm		= 1.D0
 effgw_rdg_beta		= 1.0D0
 effgw_rdg_beta_max		= 1.0D0
 fcrit2		= 1.0
 frontgfc		= 3.0D-15
 gw_apply_tndmax		= .false.
 gw_dc		= 2.5D0
 gw_dc_long		= 0.D0
 gw_drag_file		= '/glade/p/cesmdata/cseg/inputdata/atm/waccm/gw/newmfspectra40_dc25.nc'
 gw_limit_tau_without_eff		= .true. 
 gw_lndscl_sgh		= .false.
 gw_oro_south_fac		= 2.d0   
 gw_polar_taper		= .true.
 gw_prndl		= 0.5D0
 gw_qbo_hdepth_scaling		= 0.25D0
 gw_top_taper		= .true.
 n_rdg_beta		= 10
 pgwv		= 18
 pgwv_long		= 0
 rdg_beta_cd_llb		= 1.0D0
 tau_0_ubc		= .false.
 taubgnd		= 2.5D-3
 trpd_leewv_rdg_beta		= .false.
 use_gw_rdg_beta		= .true.
 use_gw_rdg_gamma		= .false.
/
&gw_rdg_nl
 gw_rdg_c_betamax_ds		=  0.0d0  
 gw_rdg_c_betamax_sm		=  2.0d0  
 gw_rdg_c_gammamax		=  2.0d0  
 gw_rdg_do_adjust_tauoro		= .true.  
 gw_rdg_do_backward_compat		= .false.
 gw_rdg_do_divstream		= .true.
 gw_rdg_do_smooth_regimes		= .false. 
 gw_rdg_fr_c		= 1.0D0
 gw_rdg_frx0		=  2.0d0  
 gw_rdg_frx1		=  3.0d0  
 gw_rdg_orohmin		=  0.01d0 
 gw_rdg_orom2min		=  0.1d0  
 gw_rdg_orostratmin		=  0.002d0
 gw_rdg_orovmin		=  1.0d-3 
/
&ion_electron_temp_nl
 steady_state_ion_elec_temp		= .false.
/
&iondrag_nl
 efield_hflux_file		= '/glade/p/cesmdata/cseg/inputdata/atm/waccm/efld/coeff_hflux.dat'
 efield_lflux_file		= '/glade/p/cesmdata/cseg/inputdata/atm/waccm/efld/coeff_lflux.dat'
 efield_potential_max		= 120.D0
 empirical_ion_velocities		= .false.
/
&ionosphere_nl
 edyn_grid		= '160x193'
 ionos_edyn_active		= .true.
 ionos_epotential_model		= 'heelis'
 ionos_xport_active		= .true.
 ionos_xport_nsplit		= 30
 oplus_grid		=  288,192 
 oplus_ring_polar_filter		= .true.
/
&micro_mg_nl
 micro_do_massless_droplet_destroyer		=   .false. 
 micro_do_sb_physics		= .false.
 micro_mg_adjust_cpt		= .false.
 micro_mg_berg_eff_factor		=   1.0D0    
 micro_mg_dcs		=                                  500.D-6    
 micro_mg_do_graupel		=  .false. 
 micro_mg_do_hail		=  .false. 
 micro_mg_num_steps		=                                  1          
 micro_mg_precip_frac_method		= 'in_cloud'
 micro_mg_sub_version		=                                  0          
 micro_mg_version		=                                  2          
/
&modal_aer_opt_nl
 water_refindex_file		= '/glade/p/cesmdata/cseg/inputdata/atm/cam/physprops/water_refindex_rrtmg_c080910.nc'
/
&nucleate_ice_nl
 nucleate_ice_incloud		= .false.
 nucleate_ice_strat		= 1.0D0
 nucleate_ice_subgrid		= 1.2D0
 nucleate_ice_subgrid_strat		= 1.2D0
 nucleate_ice_use_troplev		= .true.
 use_preexisting_ice		= .true.
/
&phys_ctl_nl
 cam_chempkg		= 'waccm_ma_mam4'
 cam_physics_mesh		= '/glade/p/cesmdata/cseg/inputdata/atm/cam/coords/fv0.9x1.25_esmf_c210305.nc'
 cam_physpkg		= 'cam6'
 cam_snapshot_after_num		=    -1 
 cam_snapshot_before_num		=   -1 
 cld_macmic_num_steps		=  1 
 deep_scheme		= 'ZM'
 do_clubb_sgs		=  .true.  
 eddy_scheme		= 'CLUBB_SGS'
 history_aero_optics		=           .false.  
 history_aerosol		=               .false.  
 history_amwg		=                  .true.   
 history_budget		=                .false.  
 history_chemistry		=             .true.   
 history_chemspecies_srf		=       .true.   
 history_clubb		=                 .true.   
 history_dust		=                  .false.  
 history_eddy		=                  .false.  
 history_vdiag		=                 .false.  
 history_waccm		=  .true.   
 history_waccmx		=     .true.   
 macrop_scheme		= 'CLUBB_SGS'
 microp_scheme		= 'MG'
 radiation_scheme		= 'rrtmg'
 shallow_scheme		= 'CLUBB_SGS'
 srf_flux_avg		= 0
 use_gw_convect_dp		= .true.
 use_gw_convect_sh		= .false.
 use_gw_front		= .true.
 use_gw_front_igw		= .false.
 use_gw_oro		= .false.
 use_hetfrz_classnuc		= .true.
 use_simple_phys		= .false.
 use_subcol_microp		= .false.
 waccmx_opt		= 'ionosphere'
/
&qbo_nl
 qbo_use_forcing		= .false.
/
&qneg_nl
 print_qneg_warn		= 'summary'
/
&rad_cnst_nl
 icecldoptics		= 'mitchell'
 iceopticsfile		= '/glade/p/cesmdata/cseg/inputdata/atm/cam/physprops/iceoptics_c080917.nc'
 liqcldoptics		= 'gammadist'
 liqopticsfile		= '/glade/p/cesmdata/cseg/inputdata/atm/cam/physprops/F_nwvl200_mu20_lam50_res64_t298_c080428.nc'
 mode_defs		= 'mam4_mode1:accum:=', 'A:num_a1:N:num_c1:num_mr:+',
         'A:so4_a1:N:so4_c1:sulfate:/glade/p/cesmdata/cseg/inputdata/atm/cam/physprops/sulfate_rrtmg_c080918.nc:+', 'A:pom_a1:N:pom_c1:p-organic:/glade/p/cesmdata/cseg/inputdata/atm/cam/physprops/ocpho_rrtmg_c130709.nc:+',
         'A:soa_a1:N:soa_c1:s-organic:/glade/p/cesmdata/cseg/inputdata/atm/cam/physprops/ocphi_rrtmg_c100508.nc:+', 'A:bc_a1:N:bc_c1:black-c:/glade/p/cesmdata/cseg/inputdata/atm/cam/physprops/bcpho_rrtmg_c100508.nc:+',
         'A:dst_a1:N:dst_c1:dust:/glade/p/cesmdata/cseg/inputdata/atm/cam/physprops/dust_aeronet_rrtmg_c141106.nc:+', 'A:ncl_a1:N:ncl_c1:seasalt:/glade/p/cesmdata/cseg/inputdata/atm/cam/physprops/ssam_rrtmg_c100508.nc',
         'mam4_mode2:aitken:=', 'A:num_a2:N:num_c2:num_mr:+',
         'A:so4_a2:N:so4_c2:sulfate:/glade/p/cesmdata/cseg/inputdata/atm/cam/physprops/sulfate_rrtmg_c080918.nc:+', 'A:soa_a2:N:soa_c2:s-organic:/glade/p/cesmdata/cseg/inputdata/atm/cam/physprops/ocphi_rrtmg_c100508.nc:+',
         'A:ncl_a2:N:ncl_c2:seasalt:/glade/p/cesmdata/cseg/inputdata/atm/cam/physprops/ssam_rrtmg_c100508.nc:+', 'A:dst_a2:N:dst_c2:dust:/glade/p/cesmdata/cseg/inputdata/atm/cam/physprops/dust_aeronet_rrtmg_c141106.nc',
         'mam4_mode3:coarse:=', 'A:num_a3:N:num_c3:num_mr:+',
         'A:dst_a3:N:dst_c3:dust:/glade/p/cesmdata/cseg/inputdata/atm/cam/physprops/dust_aeronet_rrtmg_c141106.nc:+', 'A:ncl_a3:N:ncl_c3:seasalt:/glade/p/cesmdata/cseg/inputdata/atm/cam/physprops/ssam_rrtmg_c100508.nc:+',
         'A:so4_a3:N:so4_c3:sulfate:/glade/p/cesmdata/cseg/inputdata/atm/cam/physprops/sulfate_rrtmg_c080918.nc', 'mam4_mode4:primary_carbon:=',
         'A:num_a4:N:num_c4:num_mr:+', 'A:pom_a4:N:pom_c4:p-organic:/glade/p/cesmdata/cseg/inputdata/atm/cam/physprops/ocpho_rrtmg_c130709.nc:+',
         'A:bc_a4:N:bc_c4:black-c:/glade/p/cesmdata/cseg/inputdata/atm/cam/physprops/bcpho_rrtmg_c100508.nc'
 rad_climate		= 'A:Q:H2O', 'A:O2:O2',
         'A:CO2:CO2', 'A:O3:O3',
         'A:N2O:N2O', 'A:CH4:CH4',
         'N:CFC11STAR:CFC11', 'A:CFC12:CFC12',
         'M:mam4_mode1:/glade/p/cesmdata/cseg/inputdata/atm/cam/physprops/mam4_mode1_rrtmg_aeronetdust_sig1.6_dgnh.48_c140304.nc', 'M:mam4_mode2:/glade/p/cesmdata/cseg/inputdata/atm/cam/physprops/mam4_mode2_rrtmg_aitkendust_c141106.nc',
         'M:mam4_mode3:/glade/p/cesmdata/cseg/inputdata/atm/cam/physprops/mam4_mode3_rrtmg_aeronetdust_sig1.2_dgnl.40_c150219.nc', 'M:mam4_mode4:/glade/p/cesmdata/cseg/inputdata/atm/cam/physprops/mam4_mode4_rrtmg_c130628.nc'
/
&radiation_nl
 graupel_in_rad		=  .false. 
/
&ref_pres_nl
 clim_modal_aero_top_press		=  1.D-4 
 do_molec_press		=  0.1D0 
 molec_diff_bot_press		=  50.D0 
 trop_cloud_top_press		=       1.D2 
/
&rxn_rate_diags_nl
 rxn_rate_sums		= 'SolIonRate_Tot = jeuv_1 + jeuv_2 + jeuv_3 + jeuv_4 + jeuv_5 + jeuv_6 + jeuv_7 + jeuv_8 + jeuv_9 + jeuv_10 + jeuv_11 + jeuv_14 + jeuv_15 + jeuv_16 +',
         'jeuv_17 + jeuv_18 + jeuv_19 + jeuv_20 + jeuv_21 + jeuv_22 + jeuv_23'
/
&solar_data_opts
 solar_data_type		= 'SERIAL'
 solar_htng_spctrl_scl		= .true.
 solar_irrad_data_file		= '/glade/p/cesmdata/cseg/inputdata/atm/cam/solar/SolarForcing1995-2005avg_c160929.nc'
 solar_parms_data_file		= '/glade/p/cesmdata/cseg/inputdata/atm/cam/solar/SolarForcing1995-2005avg_c160929.nc'
/
&spmd_fv_inparm
 npr_yz		= 50,9,9,50
/
&tms_nl
 do_tms		=  .false. 
/
&tropopause_nl
 tropopause_climo_file		= '/glade/p/cesmdata/cseg/inputdata/atm/cam/chem/trop_mozart/ub/clim_p_trop.nc'
/
&vert_diff_nl
 diff_cnsrv_mass_check		=  .false. 
 do_iss		=  .true.  
/
&wetdep_inparm
 gas_wetdep_list		= 'BRONO2', 'CH2O', 'CH3OOH', 'CLONO2', 'CO', 'COF2', 'COFCL', 'DMS', 'H2O2', 'H2SO4', 'HBR', 'HCL', 'HF', 'HNO3',
         'HO2NO2', 'HOBR', 'HOCL', 'N2O5', 'NO', 'NO2', 'SO2'
 gas_wetdep_method		= 'NEU'
/
&zmconv_nl
 zmconv_c0_lnd		=  0.0075D0 
 zmconv_c0_ocn		=  0.0300D0 
 zmconv_ke		=  5.0E-6 
 zmconv_ke_lnd		=  1.0E-5 
 zmconv_microp		=  .false. 
 zmconv_momcd		=  0.7000D0 
 zmconv_momcu		=  0.7000D0 
 zmconv_num_cin		=  1       
 zmconv_org		=  .false. 
/
